Version 4
SHEET 1 1012 680
WIRE 224 -400 144 -400
WIRE 336 -400 288 -400
WIRE 256 -320 208 -320
WIRE 256 -304 256 -320
WIRE 336 -288 336 -400
WIRE 336 -288 288 -288
WIRE 480 -288 336 -288
WIRE 592 -288 560 -288
WIRE -16 -272 -80 -272
WIRE 144 -272 144 -400
WIRE 144 -272 64 -272
WIRE 224 -272 144 -272
WIRE 304 -256 288 -256
WIRE 336 -256 304 -256
WIRE 336 -240 336 -256
WIRE 256 -224 256 -240
WIRE 304 -224 304 -256
WIRE 304 -224 256 -224
WIRE -80 -144 -80 -272
WIRE -32 -144 -80 -144
WIRE 80 -144 32 -144
WIRE 208 -64 208 -320
WIRE 208 -64 128 -64
WIRE 368 -64 208 -64
WIRE -80 -48 -80 -144
WIRE -32 -48 -80 -48
WIRE 80 -48 80 -144
WIRE 80 -48 48 -48
WIRE 480 -48 448 -48
WIRE 592 -48 592 -288
WIRE 592 -48 560 -48
WIRE 128 16 128 -64
WIRE 128 16 0 16
WIRE 368 16 368 -64
WIRE 512 16 368 16
WIRE 0 64 0 16
WIRE 512 64 512 16
WIRE -256 80 -336 80
WIRE -80 80 -80 -48
WIRE -80 80 -176 80
WIRE -32 80 -80 80
WIRE 80 80 80 -48
WIRE 240 80 80 80
WIRE 448 80 448 -48
WIRE 448 80 320 80
WIRE 480 80 448 80
WIRE 80 96 80 80
WIRE 80 96 32 96
WIRE 592 96 592 -48
WIRE 592 96 544 96
WIRE 672 96 592 96
WIRE -32 112 -80 112
WIRE 480 112 448 112
WIRE -336 144 -336 80
WIRE 448 160 448 112
WIRE 512 160 512 128
WIRE 512 160 448 160
WIRE -336 272 -336 224
WIRE -80 272 -80 112
WIRE -80 272 -336 272
WIRE 0 272 0 128
WIRE 0 272 -80 272
WIRE 208 272 0 272
WIRE 448 272 448 160
WIRE 448 272 208 272
WIRE 208 304 208 272
FLAG 336 -240 0
FLAG 208 304 0
FLAG 208 16 0
SYMBOL LM741 0 32 R0
SYMATTR InstName U1
SYMBOL LM741 512 32 R0
SYMATTR InstName U2
SYMBOL LM741 256 -336 M0
SYMATTR InstName U3
SYMBOL res 64 -64 R90
WINDOW 0 0 56 VBottom 2
WINDOW 3 32 56 VTop 2
SYMATTR InstName R1
SYMATTR Value {R2}
SYMBOL res 336 64 R90
WINDOW 0 0 56 VBottom 2
WINDOW 3 32 56 VTop 2
SYMATTR InstName R2
SYMATTR Value {R4}
SYMBOL res 576 -64 R90
WINDOW 0 0 56 VBottom 2
WINDOW 3 32 56 VTop 2
SYMATTR InstName R3
SYMATTR Value {R4}
SYMBOL res 576 -304 R90
WINDOW 0 0 56 VBottom 2
WINDOW 3 32 56 VTop 2
SYMATTR InstName R4
SYMATTR Value {R4}
SYMBOL res -160 64 R90
WINDOW 0 0 56 VBottom 2
WINDOW 3 32 56 VTop 2
SYMATTR InstName R5
SYMATTR Value {R1}
SYMBOL res 80 -288 R90
WINDOW 0 0 56 VBottom 2
WINDOW 3 32 56 VTop 2
SYMATTR InstName R6
SYMATTR Value {R3}
SYMBOL cap 32 -160 R90
WINDOW 0 0 32 VBottom 2
WINDOW 3 32 32 VTop 2
SYMATTR InstName C1
SYMATTR Value {C}
SYMBOL cap 288 -416 R90
WINDOW 0 0 32 VBottom 2
WINDOW 3 32 32 VTop 2
SYMATTR InstName C2
SYMATTR Value {C}
SYMBOL voltage -336 128 R0
WINDOW 123 24 124 Left 2
WINDOW 39 0 0 Left 0
SYMATTR InstName V1
SYMATTR Value 0
SYMATTR Value2 AC 1 0
SYMBOL voltage 208 -80 R0
WINDOW 123 0 0 Left 0
WINDOW 39 0 0 Left 0
SYMATTR InstName V2
SYMATTR Value 100
TEXT -256 360 Left 2 !.param C=0.015u
TEXT -262 388 Left 2 !.ac dec 1000 250 1000
TEXT -240 424 Left 2 !.param R1=47.5k R2=475k R3=17k R4=17k
