Version 4
SHEET 1 1128 680
WIRE 656 -160 336 -160
WIRE 944 -160 720 -160
WIRE 208 16 128 16
WIRE 336 16 336 -160
WIRE 336 16 288 16
WIRE 384 16 336 16
WIRE 528 16 464 16
WIRE 736 16 528 16
WIRE 1056 32 800 32
WIRE 736 48 688 48
WIRE 768 96 768 64
WIRE 1072 96 768 96
WIRE 128 112 128 16
WIRE 528 144 528 16
WIRE 688 192 688 48
WIRE 768 192 688 192
WIRE 944 192 944 -160
WIRE 944 192 848 192
WIRE 1072 192 1072 96
WIRE 688 240 688 192
WIRE 128 432 128 192
WIRE 512 432 128 432
WIRE 528 432 528 208
WIRE 528 432 512 432
WIRE 688 432 688 320
WIRE 688 432 528 432
FLAG 512 432 0
FLAG 1056 32 Vout
FLAG 768 0 0
FLAG 1072 272 0
SYMBOL voltage 128 96 R0
WINDOW 123 24 124 Left 2
WINDOW 39 0 0 Left 0
SYMATTR Value2 AC 1 0
SYMATTR InstName V1
SYMATTR Value ""
SYMBOL res 304 0 R90
WINDOW 0 0 56 VBottom 2
WINDOW 3 32 56 VTop 2
SYMATTR InstName R1
SYMATTR Value 1k
SYMBOL res 480 0 R90
WINDOW 0 0 56 VBottom 2
WINDOW 3 32 56 VTop 2
SYMATTR InstName R2
SYMATTR Value 1k
SYMBOL res 864 176 R90
WINDOW 0 0 56 VBottom 2
WINDOW 3 32 56 VTop 2
SYMATTR InstName R3
SYMATTR Value 1k
SYMBOL res 704 336 R180
WINDOW 0 36 76 Left 2
WINDOW 3 36 40 Left 2
SYMATTR InstName R4
SYMATTR Value 1k
SYMBOL cap 512 144 R0
SYMATTR InstName C1
SYMATTR Value 159.1n
SYMBOL cap 720 -176 R90
WINDOW 0 0 32 VBottom 2
WINDOW 3 32 32 VTop 2
SYMATTR InstName C2
SYMATTR Value 159.1n
SYMBOL LM741 768 96 M180
SYMATTR InstName U1
SYMBOL voltage 1072 176 R0
WINDOW 123 0 0 Left 0
WINDOW 39 0 0 Left 0
SYMATTR InstName V2
SYMATTR Value 2
TEXT 136 488 Left 2 !.ac dec 20 1 1000000
